/*--------------------------------*- C++ -*----------------------------------*\
  =========                 |
  \\      /  F ield         | OpenFOAM: The Open Source CFD Toolbox
   \\    /   O peration     | Website:  https://openfoam.org
    \\  /    A nd           | Version:  dev
     \\/     M anipulation  |
\*---------------------------------------------------------------------------*/
FoamFile
{
    version     2.0;
    format      ascii;
    class       dictionary;
    object      blockMeshDict;
}
// * * * * * * * * * * * * * * * * * * * * * * * * * * * * * * * * * * * * * //

convertToMeters 1;

v              1;

vertices
(
    (#neg $v #neg $v #neg $v)
    (     $v #neg $v #neg $v)
    (     $v      $v #neg $v)
    (#neg $v      $v #neg $v)
    (#neg $v #neg $v      $v)
    (     $v #neg $v      $v)
    (     $v      $v      $v)
    (#neg $v      $v      $v)
);

blocks
(
    hex (0 1 2 3 4 5 6 7) (25 25 25) simpleGrading (1 1 1)
);

defaultPatch
{
    name        default;
    type        patch;
}

boundary
(
);

// ************************************************************************* //
